Methane
  NIST    06301516243D 1   1.00000   -40.51838
Copyright by the U.S. Sec. Commerce on behalf of U.S.A. All rights reserved.
  5  4  0  0  0  0  0  0  0  0999 V2000
    1.0582    0.9352    0.8103 C    0  0  0  0  0  0  0  0  0  0  0  0
    1.4165    1.5700   -0.0048 H    0  0  0  0  0  0  0  0  0  0  0  0
    1.2073    1.4482    1.7644 H    0  0  0  0  0  0  0  0  0  0  0  0
   -0.0062    0.7282    0.6702 H    0  0  0  0  0  0  0  0  0  0  0  0
    1.6154   -0.0056    0.8114 H    0  0  0  0  0  0  0  0  0  0  0  0
  1  2  1  0  0  0  0
  1  3  1  0  0  0  0
  1  4  1  0  0  0  0
  1  5  1  0  0  0  0
M  END
> <COPYRIGHT>
Collection (C) 2016 copyright by the U.S. Secretary of Commerce on behalf of the United States of America. All rights reserved.

> <DATE>
2015-06-30

> <CAS.NUMBER>
74-82-8

> <METHOD>
B3LYP/6-31G*

> <DIPOLE.MOMENT>
0.0000 debye

> <ELECTRONIC.ENERGY>
-40.5183826790 hartree

> <IR.FREQUENCIES>
"Frequency (cm-1)"   "Intensity (km/mol)"
1373.2355  15.3922
1373.3862  15.3842
1373.4522  15.3849
1593.0856  0.0000
1593.1455  0.0000
3052.3588  0.0000
3161.8339  26.4550
3162.0350  26.4514
3162.1113  26.4451

> <ROTATIONAL.CONSTANTS>
157.28042 GHz
157.27910 GHz
157.27552 GHz

> <SOFTWARE>
Gaussian 09, Revision D.01

> <CONTRIBUTOR>
Avi Newman

$$$$
